           6    
Time step:                  11 Sim. Time [au]         110.00
C    -0.15190707E-01   -0.74020219E-02    0.11630684E-01
N    -0.11079027E-01   -0.49071868E-02    0.13315348E+01
H     0.99314487E+00    0.54193905E-01   -0.45306325E+00
H     0.93610241E+00    0.28279512E-01    0.16462338E+01
H    -0.82074492E+00    0.42377996E-01    0.19035915E+01
H    -0.77405115E+00    0.31435551E-01   -0.58220746E+00
