18

O -1.502169 -0.191359 1.434927
H -0.601054 -0.596972 1.553718
H -2.006698 -0.422327 2.219847
O -1.744575 -0.382348 -1.309144
H -1.888941 -0.479653 -0.347624
H -2.516835 -0.766765 -1.733766
O -0.560409 2.017830 -0.121984
H -0.947720 1.533567 0.625228
H -0.989831 1.592736 -0.877419
O 0.964803 -1.165765 1.439987
H 0.979557 -1.522041 0.527833
H 1.542224 -0.393692 1.344373
O 0.974705 -1.401503 -1.335970
H 0.065161 -1.118951 -1.522886
H 1.470709 -0.570933 -1.277710
O 2.002280 1.057824 -0.124502
H 1.141637 1.532266 -0.140121
H 2.674716 1.735342 -0.237995
